*SPEF "1481-1998"
*DESIGN "MotionEstimator"
*DATE "Sun Dec 20 17:27:12 2020"
*VENDOR "Synopsys, Inc."
*PROGRAM "icc_shell"
*VERSION "O-2018.06-SP4"
*DESIGN_FLOW "PIN_CAP NONE"
*DIVIDER /
*DELIMITER :
*BUS_DELIMITER [ ]
*T_UNIT 1 NS
*C_UNIT 1 FF
*R_UNIT 1 OHM
*L_UNIT 1 HENRY

*NAME_MAP
*1 R[5]
*2 R[4]
*3 R[3]
*4 R[2]
*5 R[1]
*6 R[0]
*7 S1[5]
*8 S1[4]
*9 S1[3]
*10 S1[2]
*11 S1[1]
*12 S1[0]
*13 R[7]
*14 R[6]
*15 S2[5]
*16 S2[4]
*17 S2[3]
*18 S2[2]
*19 S2[1]
*20 S2[0]
*21 S1[7]
*22 S1[6]
*23 BestDist[5]
*24 BestDist[4]
*25 BestDist[3]
*26 BestDist[2]
*27 BestDist[1]
*28 BestDist[0]
*29 S2[7]
*30 S2[6]
*31 motionY[1]
*32 motionY[0]
*33 motionX[3]
*34 motionX[2]
*35 motionX[1]
*36 motionX[0]
*37 BestDist[7]
*38 BestDist[6]
*39 AddressR[5]
*40 AddressR[4]
*41 AddressR[3]
*42 AddressR[2]
*43 AddressR[1]
*44 AddressR[0]
*45 motionY[3]
*46 motionY[2]
*47 AddressS1[5]
*48 AddressS1[4]
*49 AddressS1[3]
*50 AddressS1[2]
*51 AddressS1[1]
*52 AddressS1[0]
*53 AddressR[7]
*54 AddressR[6]
*55 AddressS2[3]
*56 AddressS2[2]
*57 AddressS2[1]
*58 AddressS2[0]
*59 AddressS1[9]
*60 AddressS1[8]
*61 AddressS1[7]
*62 AddressS1[6]
*63 start
*64 clock
*65 AddressS2[9]
*66 AddressS2[8]
*67 AddressS2[7]
*68 AddressS2[6]
*69 AddressS2[5]
*70 AddressS2[4]
*71 comp_u/U258
*72 comp_u/motionX_reg\[2\]
*73 comp_u/n125
*74 ctl_u/U46
*75 ctl_u/U21
*76 comp_u/U257
*77 comp_u/motionX_reg\[1\]
*78 comp_u/n124
*79 VectorX\[1\]
*80 ctl_u/U94
*81 ctl_u/U93
*82 ctl_u/U92
*83 comp_u/U256
*84 comp_u/motionX_reg\[0\]
*85 comp_u/n123
*86 comp_u/U255
*87 comp_u/motionY_reg\[3\]
*88 comp_u/n130
*89 VectorY\[3\]
*90 ctl_u/U75
*91 comp_u/U254
*92 comp_u/motionY_reg\[2\]
*93 comp_u/n129
*94 VectorY\[2\]
*95 ctl_u/U39
*96 comp_u/U253
*97 comp_u/motionY_reg\[1\]
*98 comp_u/n128
*99 VectorY\[1\]
*100 ctl_u/U64
*101 comp_u/U252
*102 comp_u/motionY_reg\[0\]
*103 comp_u/n127
*104 VectorY\[0\]
*105 ctl_u/U174
*106 ctl_u/U70
*107 ctl_u/U51
*108 ctl_u/count_reg\[8\]
*109 comp_u/n264
*110 comp_u/U251
*111 comp_u/U250
*112 comp_u/n136
*113 comp_u/BestDist_reg\[6\]
*114 comp_u/n263
*115 comp_u/U81
*116 comp_u/n262
*117 comp_u/U198
*118 comp_u/U80
*119 comp_u/n261
*120 comp_u/U249
*121 comp_u/U248
*122 comp_u/n135
*123 comp_u/BestDist_reg\[5\]
*124 comp_u/n260
*125 comp_u/U238
*126 comp_u/U108
*127 comp_u/n259
*128 comp_u/U247
*129 comp_u/n258
*130 comp_u/U205
*131 comp_u/n257
*132 comp_u/U246
*133 comp_u/U176
*134 comp_u/n134
*135 comp_u/BestDist_reg\[4\]
*136 comp_u/n253
*137 comp_u/U245
*138 comp_u/U64
*139 comp_u/n133
*140 comp_u/BestDist_reg\[3\]
*141 comp_u/n249
*142 comp_u/U244
*143 comp_u/U243
*144 comp_u/n132
*145 comp_u/BestDist_reg\[2\]
*146 comp_u/n248
*147 comp_u/U237
*148 comp_u/U236
*149 comp_u/n27
*150 comp_u/U27
*151 comp_u/n246
*152 comp_u/U242
*153 comp_u/U63
*154 comp_u/n131
*155 comp_u/BestDist_reg\[1\]
*156 comp_u/n244
*157 comp_u/U241
*158 comp_u/U240
*159 comp_u/n138
*160 comp_u/BestDist_reg\[0\]
*161 comp_u/n243
*162 comp_u/n2
*163 comp_u/U8
*164 comp_u/n240
*165 comp_u/U239
*166 comp_u/U78
*167 comp_u/n238
*168 comp_u/U185
*169 comp_u/U158
*170 comp_u/U157
*171 comp_u/n241
*172 comp_u/U150
*173 comp_u/n10
*174 comp_u/BestDist_reg\[7\]
*175 comp_u/n239
*176 comp_u/U3
*177 comp_u/n256
*178 comp_u/U126
*179 comp_u/n235
*180 comp_u/U125
*181 comp_u/n236
*182 comp_u/n252
*183 comp_u/U143
*184 comp_u/n36
*185 comp_u/U144
*186 comp_u/U49
*187 comp_u/n233
*188 comp_u/n234
*189 comp_u/n15
*190 comp_u/U44
*191 comp_u/n231
*192 comp_u/U235
*193 comp_u/n232
*194 comp_u/U234
*195 comp_u/n247
*196 comp_u/U229
*197 comp_u/n112
*198 comp_u/U115
*199 comp_u/n230
*200 comp_u/U98
*201 comp_u/n11
*202 comp_u/U36
*203 Accumulate\[73\]
*204 comp_u/U233
*205 pe_u/pe9/add_85/U1_1
*206 pe_u/pe9/Accumulate_reg\[1\]
*207 comp_u/n228
*208 comp_u/U54
*209 comp_u/n76
*210 comp_u/U168
*211 comp_u/U167
*212 comp_u/U13
*213 Accumulate\[105\]
*214 pe_u/pe13/add_85/U1_1
*215 pe_u/pe13/Accumulate_reg\[1\]
*216 comp_u/n226
*217 comp_u/U232
*218 comp_u/U55
*219 comp_u/n223
*220 comp_u/U92
*221 comp_u/n225
*222 comp_u/U230
*223 comp_u/n224
*224 comp_u/U231
*225 comp_u/n88
*226 comp_u/U222
*227 comp_u/U207
*228 comp_u/U188
*229 comp_u/U160
*230 Accumulate\[41\]
*231 pe_u/pe5/add_85/U1_1
*232 pe_u/pe5/Accumulate_reg\[1\]
*233 comp_u/n92
*234 comp_u/U164
*235 Accumulate\[33\]
*236 pe_u/pe4/add_85/U1_1
*237 pe_u/pe4/Accumulate_reg\[1\]
*238 Accumulate\[25\]
*239 pe_u/pe3/add_85/U1_1
*240 pe_u/pe3/Accumulate_reg\[1\]
*241 Accumulate\[17\]
*242 pe_u/pe2/add_85/U1_1
*243 pe_u/pe2/Accumulate_reg\[1\]
*244 Accumulate\[114\]
*245 pe_u/pe14/add_85/U1_2
*246 pe_u/pe14/Accumulate_reg\[2\]
*247 Accumulate\[122\]
*248 pe_u/pe15/add_114/U1_2
*249 pe_u/pe15/Accumulate_reg\[2\]
*250 comp_u/n221
*251 comp_u/U228
*252 comp_u/n84
*253 comp_u/U68
*254 comp_u/U17
*255 comp_u/U2
*256 comp_u/n79
*257 comp_u/U213
*258 comp_u/U116
*259 comp_u/U114
*260 comp_u/U56
*261 comp_u/n218
*262 comp_u/U227
*263 comp_u/n220
*264 comp_u/U221
*265 comp_u/n219
*266 comp_u/U225
*267 comp_u/n217
*268 comp_u/U226
*269 Accumulate\[66\]
*270 pe_u/pe8/add_85/U1_2
*271 pe_u/pe8/Accumulate_reg\[2\]
*272 comp_u/n90
*273 comp_u/U211
*274 comp_u/U186
*275 comp_u/U161
*276 comp_u/n106
*277 comp_u/U190
*278 comp_u/U83
*279 comp_u/U34
*280 Accumulate\[90\]
*281 pe_u/pe11/add_85/U1_2
*282 pe_u/pe11/Accumulate_reg\[2\]
*283 Accumulate\[74\]
*284 pe_u/pe9/add_85/U1_2
*285 pe_u/pe9/Accumulate_reg\[2\]
*286 comp_u/n99
*287 comp_u/U210
*288 comp_u/U196
*289 Accumulate\[106\]
*290 pe_u/pe13/add_85/U1_2
*291 pe_u/pe13/Accumulate_reg\[2\]
*292 comp_u/n96
*293 comp_u/U166
*294 comp_u/U86
*295 comp_u/n216
*296 comp_u/U224
*297 comp_u/n94
*298 comp_u/U165
*299 comp_u/U71
*300 comp_u/n69
*301 comp_u/U133
*302 comp_u/U73
*303 comp_u/U24
*304 Accumulate\[82\]
*305 pe_u/pe10/add_85/U1_2
*306 pe_u/pe10/Accumulate_reg\[2\]
*307 comp_u/n213
*308 comp_u/U223
*309 comp_u/n215
*310 comp_u/U130
*311 comp_u/n214
*312 Accumulate\[2\]
*313 pe_u/pe0/add_85/U1_2
*314 pe_u/pe0/Accumulate_reg\[2\]
*315 Accumulate\[50\]
*316 pe_u/pe6/add_85/U1_2
*317 pe_u/pe6/Accumulate_reg\[2\]
*318 comp_u/n120
*319 comp_u/U151
*320 comp_u/U153
*321 comp_u/U58
*322 comp_u/U152
*323 comp_u/U119
*324 comp_u/U187
*325 comp_u/U12
*326 Accumulate\[10\]
*327 pe_u/pe1/add_85/U1_2
*328 pe_u/pe1/Accumulate_reg\[2\]
*329 Accumulate\[42\]
*330 pe_u/pe5/add_85/U1_2
*331 pe_u/pe5/Accumulate_reg\[2\]
*332 Accumulate\[34\]
*333 pe_u/pe4/add_85/U1_2
*334 pe_u/pe4/Accumulate_reg\[2\]
*335 comp_u/n107
*336 comp_u/U192
*337 comp_u/U171
*338 comp_u/U39
*339 Accumulate\[98\]
*340 pe_u/pe12/add_85/U1_2
*341 pe_u/pe12/Accumulate_reg\[2\]
*342 Accumulate\[58\]
*343 pe_u/pe7/add_85/U1_2
*344 pe_u/pe7/Accumulate_reg\[2\]
*345 Accumulate\[115\]
*346 comp_u/U220
*347 pe_u/pe14/add_85/U1_3
*348 pe_u/pe14/Accumulate_reg\[3\]
*349 Accumulate\[123\]
*350 pe_u/pe15/add_114/U1_3
*351 pe_u/pe15/Accumulate_reg\[3\]
*352 comp_u/n63
*353 comp_u/U131
*354 comp_u/U111
*355 comp_u/n85
*356 comp_u/U35
*357 comp_u/U149
*358 comp_u/U10
*359 comp_u/n250
*360 comp_u/n212
*361 comp_u/U48
*362 comp_u/n208
*363 comp_u/U219
*364 comp_u/U218
*365 Accumulate\[67\]
*366 pe_u/pe8/add_85/U1_3
*367 pe_u/pe8/Accumulate_reg\[3\]
*368 comp_u/n91
*369 comp_u/U162
*370 comp_u/U38
*371 comp_u/U37
*372 comp_u/n209
*373 comp_u/U47
*374 comp_u/n56
*375 comp_u/U18
*376 Accumulate\[91\]
*377 pe_u/pe11/add_85/U1_3
*378 pe_u/pe11/Accumulate_reg\[3\]
*379 Accumulate\[75\]
*380 pe_u/pe9/add_85/U1_3
*381 pe_u/pe9/Accumulate_reg\[3\]
*382 comp_u/n98
*383 comp_u/U203
*384 comp_u/U183
*385 Accumulate\[107\]
*386 pe_u/pe13/add_85/U1_3
*387 pe_u/pe13/Accumulate_reg\[3\]
*388 comp_u/n207
*389 comp_u/U217
*390 comp_u/n204
*391 comp_u/U216
*392 comp_u/n206
*393 comp_u/n205
*394 comp_u/U215
*395 Accumulate\[3\]
*396 pe_u/pe0/add_85/U1_3
*397 pe_u/pe0/Accumulate_reg\[3\]
*398 Accumulate\[51\]
*399 pe_u/pe6/add_85/U1_3
*400 pe_u/pe6/Accumulate_reg\[3\]
*401 comp_u/n119
*402 comp_u/U6
*403 Accumulate\[11\]
*404 pe_u/pe1/add_85/U1_3
*405 pe_u/pe1/Accumulate_reg\[3\]
*406 comp_u/n89
*407 comp_u/U200
*408 comp_u/U193
*409 comp_u/U181
*410 comp_u/U97
*411 Accumulate\[43\]
*412 pe_u/pe5/add_85/U1_3
*413 pe_u/pe5/Accumulate_reg\[3\]
*414 comp_u/n93
*415 comp_u/U132
*416 Accumulate\[35\]
*417 pe_u/pe4/add_85/U1_3
*418 pe_u/pe4/Accumulate_reg\[3\]
*419 comp_u/n52
*420 comp_u/U214
*421 comp_u/U206
*422 comp_u/U199
*423 comp_u/U180
*424 comp_u/U113
*425 Accumulate\[99\]
*426 pe_u/pe12/add_85/U1_3
*427 pe_u/pe12/Accumulate_reg\[3\]
*428 comp_u/n211
*429 comp_u/n87
*430 comp_u/U159
*431 Accumulate\[59\]
*432 pe_u/pe7/add_85/U1_3
*433 pe_u/pe7/Accumulate_reg\[3\]
*434 Accumulate\[116\]
*435 pe_u/pe14/add_85/U1_4
*436 pe_u/pe14/Accumulate_reg\[4\]
*437 Accumulate\[124\]
*438 pe_u/pe15/add_114/U1_4
*439 pe_u/pe15/Accumulate_reg\[4\]
*440 comp_u/n203
*441 comp_u/U212
*442 comp_u/n254
*443 comp_u/U85
*444 comp_u/n201
*445 comp_u/U209
*446 comp_u/n202
*447 comp_u/n200
*448 comp_u/n199
*449 Accumulate\[68\]
*450 pe_u/pe8/add_85/U1_4
*451 pe_u/pe8/Accumulate_reg\[4\]
*452 Accumulate\[92\]
*453 pe_u/pe11/add_85/U1_4
*454 pe_u/pe11/Accumulate_reg\[4\]
*455 Accumulate\[76\]
*456 pe_u/pe9/add_85/U1_4
*457 pe_u/pe9/Accumulate_reg\[4\]
*458 Accumulate\[108\]
*459 pe_u/pe13/add_85/U1_4
*460 pe_u/pe13/Accumulate_reg\[4\]
*461 comp_u/n97
*462 comp_u/U138
*463 comp_u/U122
*464 comp_u/U121
*465 comp_u/U52
*466 comp_u/n109
*467 comp_u/U103
*468 comp_u/U96
*469 comp_u/n95
*470 comp_u/U51
*471 comp_u/U46
*472 comp_u/n198
*473 comp_u/U118
*474 Accumulate\[84\]
*475 pe_u/pe10/add_85/U1_4
*476 pe_u/pe10/Accumulate_reg\[4\]
*477 Accumulate\[4\]
*478 comp_u/U208
*479 pe_u/pe0/add_85/U1_4
*480 pe_u/pe0/Accumulate_reg\[4\]
*481 Accumulate\[52\]
*482 pe_u/pe6/add_85/U1_4
*483 pe_u/pe6/Accumulate_reg\[4\]
*484 Accumulate\[12\]
*485 pe_u/pe1/add_85/U1_4
*486 pe_u/pe1/Accumulate_reg\[4\]
*487 comp_u/n195
*488 Accumulate\[44\]
*489 pe_u/pe5/add_85/U1_4
*490 pe_u/pe5/Accumulate_reg\[4\]
*491 comp_u/n196
*492 Accumulate\[36\]
*493 pe_u/pe4/add_85/U1_4
*494 pe_u/pe4/Accumulate_reg\[4\]
*495 Accumulate\[100\]
*496 pe_u/pe12/add_85/U1_4
*497 pe_u/pe12/Accumulate_reg\[4\]
*498 Accumulate\[60\]
*499 pe_u/pe7/add_85/U1_4
*500 pe_u/pe7/Accumulate_reg\[4\]
*501 Accumulate\[117\]
*502 pe_u/pe14/add_85/U1_5
*503 pe_u/pe14/Accumulate_reg\[5\]
*504 Accumulate\[125\]
*505 pe_u/pe15/add_114/U1_5
*506 pe_u/pe15/Accumulate_reg\[5\]
*507 comp_u/n194
*508 comp_u/U204
*509 comp_u/n191
*510 comp_u/n193
*511 comp_u/n192
*512 Accumulate\[77\]
*513 pe_u/pe9/add_85/U1_5
*514 pe_u/pe9/Accumulate_reg\[5\]
*515 comp_u/n190
*516 Accumulate\[109\]
*517 pe_u/pe13/add_85/U1_5
*518 pe_u/pe13/Accumulate_reg\[5\]
*519 comp_u/n189
*520 comp_u/U202
*521 comp_u/n186
*522 comp_u/U201
*523 comp_u/n188
*524 comp_u/n187
*525 Accumulate\[5\]
*526 pe_u/pe0/add_85/U1_5
*527 pe_u/pe0/Accumulate_reg\[5\]
*528 Accumulate\[53\]
*529 pe_u/pe6/add_85/U1_5
*530 pe_u/pe6/Accumulate_reg\[5\]
*531 Accumulate\[13\]
*532 pe_u/pe1/add_85/U1_5
*533 pe_u/pe1/Accumulate_reg\[5\]
*534 Accumulate\[45\]
*535 pe_u/pe5/add_85/U1_5
*536 pe_u/pe5/Accumulate_reg\[5\]
*537 Accumulate\[37\]
*538 pe_u/pe4/add_85/U1_5
*539 pe_u/pe4/Accumulate_reg\[5\]
*540 Accumulate\[101\]
*541 pe_u/pe12/add_85/U1_5
*542 pe_u/pe12/Accumulate_reg\[5\]
*543 Accumulate\[61\]
*544 pe_u/pe7/add_85/U1_5
*545 pe_u/pe7/Accumulate_reg\[5\]
*546 comp_u/n185
*547 comp_u/U197
*548 comp_u/n182
*549 comp_u/n184
*550 comp_u/n183
*551 Accumulate\[78\]
*552 pe_u/pe9/add_85/U1_6
*553 pe_u/pe9/Accumulate_reg\[6\]
*554 comp_u/n181
*555 Accumulate\[110\]
*556 pe_u/pe13/add_85/U1_6
*557 pe_u/pe13/Accumulate_reg\[6\]
*558 comp_u/n180
*559 comp_u/U195
*560 comp_u/n177
*561 comp_u/U194
*562 comp_u/n179
*563 comp_u/n178
*564 Accumulate\[6\]
*565 pe_u/pe0/add_85/U1_6
*566 pe_u/pe0/Accumulate_reg\[6\]
*567 Accumulate\[54\]
*568 pe_u/pe6/add_85/U1_6
*569 pe_u/pe6/Accumulate_reg\[6\]
*570 Accumulate\[14\]
*571 pe_u/pe1/add_85/U1_6
*572 pe_u/pe1/Accumulate_reg\[6\]
*573 Accumulate\[46\]
*574 pe_u/pe5/add_85/U1_6
*575 pe_u/pe5/Accumulate_reg\[6\]
*576 Accumulate\[38\]
*577 pe_u/pe4/add_85/U1_6
*578 pe_u/pe4/Accumulate_reg\[6\]
*579 Accumulate\[102\]
*580 pe_u/pe12/add_85/U1_6
*581 pe_u/pe12/Accumulate_reg\[6\]
*582 Accumulate\[62\]
*583 pe_u/pe7/add_85/U1_6
*584 pe_u/pe7/Accumulate_reg\[6\]
*585 comp_u/n176
*586 comp_u/U191
*587 comp_u/n242
*588 comp_u/U66
*589 comp_u/U33
*590 comp_u/n172
*591 comp_u/U106
*592 Accumulate\[64\]
*593 pe_u/pe8/add_85/U3
*594 pe_u/pe8/add_85/U2
*595 pe_u/pe8/Accumulate_reg\[0\]
*596 Accumulate\[56\]
*597 pe_u/pe7/add_85/U3
*598 pe_u/pe7/add_85/U2
*599 pe_u/pe7/Accumulate_reg\[0\]
*600 comp_u/n171
*601 comp_u/U70
*602 comp_u/n170
*603 comp_u/U189
*604 comp_u/U128
*605 comp_u/n167
*606 comp_u/U42
*607 comp_u/n169
*608 comp_u/n168
*609 Accumulate\[40\]
*610 pe_u/pe5/add_85/U3
*611 pe_u/pe5/add_85/U1
*612 pe_u/pe5/Accumulate_reg\[0\]
*613 Accumulate\[32\]
*614 pe_u/pe4/add_85/U3
*615 pe_u/pe4/add_85/U2
*616 pe_u/pe4/Accumulate_reg\[0\]
*617 Accumulate\[24\]
*618 pe_u/pe3/add_85/U3
*619 pe_u/pe3/add_85/U2
*620 pe_u/pe3/Accumulate_reg\[0\]
*621 Accumulate\[16\]
*622 pe_u/pe2/add_85/U3
*623 pe_u/pe2/add_85/U1
*624 pe_u/pe2/Accumulate_reg\[0\]
*625 comp_u/n173
*626 comp_u/U32
*627 Accumulate\[88\]
*628 pe_u/pe11/add_85/U4
*629 pe_u/pe11/add_85/U3
*630 pe_u/pe11/Accumulate_reg\[0\]
*631 Accumulate\[72\]
*632 pe_u/pe9/add_85/U3
*633 pe_u/pe9/add_85/U2
*634 pe_u/pe9/Accumulate_reg\[0\]
*635 comp_u/n137
*636 comp_u/n166
*637 comp_u/U184
*638 comp_u/n162
*639 comp_u/n164
*640 comp_u/n163
*641 Accumulate\[79\]
*642 pe_u/pe9/add_85/U1_7
*643 pe_u/pe9/Accumulate_reg\[7\]
*644 comp_u/n161
*645 Accumulate\[111\]
*646 pe_u/pe13/add_85/U1_7
*647 pe_u/pe13/Accumulate_reg\[7\]
*648 comp_u/n160
*649 comp_u/U182
*650 comp_u/n154
*651 comp_u/U104
*652 comp_u/n156
*653 comp_u/n155
*654 Accumulate\[47\]
*655 pe_u/pe5/add_85/U1_7
*656 pe_u/pe5/Accumulate_reg\[7\]
*657 Accumulate\[39\]
*658 pe_u/pe4/add_85/U1_7
*659 pe_u/pe4/Accumulate_reg\[7\]
*660 Accumulate\[103\]
*661 pe_u/pe12/add_85/U1_7
*662 pe_u/pe12/Accumulate_reg\[7\]
*663 Accumulate\[63\]
*664 pe_u/pe7/add_85/U1_7
*665 pe_u/pe7/Accumulate_reg\[7\]
*666 comp_u/n82
*667 comp_u/U174
*668 comp_u/n33
*669 comp_u/n255
*670 PEready\[13\]
*671 ctl_u/U212
*672 comp_u/U107
*673 comp_u/motionX_reg\[3\]
*674 comp_u/n126
*675 comp_u/n222
*676 comp_u/U163
*677 comp_u/U89
*678 comp_u/U40
*679 comp_u/n227
*680 comp_u/U172
*681 comp_u/U140
*682 comp_u/n108
*683 comp_u/n67
*684 comp_u/U19
*685 comp_u/n26
*686 comp_u/U7
*687 comp_u/n74
*688 comp_u/U14
*689 comp_u/n80
*690 comp_u/n159
*691 comp_u/U141
*692 comp_u/U99
*693 comp_u/n6
*694 comp_u/U29
*695 comp_u/n73
*696 comp_u/U4
*697 comp_u/n78
*698 comp_u/U25
*699 Accumulate\[127\]
*700 pe_u/pe15/add_114/U1_7
*701 pe_u/pe15/Accumulate_reg\[7\]
*702 Accumulate\[119\]
*703 pe_u/pe14/add_85/U1_7
*704 pe_u/pe14/Accumulate_reg\[7\]
*705 comp_u/n83
*706 comp_u/U1
*707 comp_u/n81
*708 comp_u/U57
*709 comp_u/U26
*710 Accumulate\[30\]
*711 pe_u/pe3/add_85/U1_6
*712 pe_u/pe3/Accumulate_reg\[6\]
*713 Accumulate\[22\]
*714 pe_u/pe2/add_85/U1_6
*715 pe_u/pe2/Accumulate_reg\[6\]
*716 Accumulate\[31\]
*717 pe_u/pe3/add_85/U1_7
*718 pe_u/pe3/Accumulate_reg\[7\]
*719 Accumulate\[23\]
*720 pe_u/pe2/add_85/U1_7
*721 pe_u/pe2/Accumulate_reg\[7\]
*722 Accumulate\[29\]
*723 pe_u/pe3/add_85/U1_5
*724 pe_u/pe3/Accumulate_reg\[5\]
*725 Accumulate\[21\]
*726 pe_u/pe2/add_85/U1_5
*727 pe_u/pe2/Accumulate_reg\[5\]
*728 comp_u/n77
*729 comp_u/U147
*730 comp_u/n143
*731 comp_u/U95
*732 comp_u/n75
*733 comp_u/U148
*734 comp_u/U134
*735 comp_u/U20
*736 comp_u/n72
*737 comp_u/n145
*738 comp_u/U139
*739 comp_u/n144
*740 comp_u/U112
*741 comp_u/n157
*742 comp_u/U50
*743 PEready\[15\]
*744 ctl_u/U214
*745 comp_u/U61
*746 comp_u/U11
*747 comp_u/n251
*748 comp_u/n114
*749 comp_u/U124
*750 comp_u/n68
*751 PEready\[0\]
*752 ctl_u/U144
*753 comp_u/n158
*754 PEready\[9\]
*755 ctl_u/U208
*756 comp_u/n66
*757 comp_u/n118
*758 PEready\[6\]
*759 ctl_u/U205
*760 comp_u/U91
*761 comp_u/U15
*762 PEready\[8\]
*763 comp_u/U135
*764 ctl_u/U207
*765 comp_u/n147
*766 comp_u/U28
*767 comp_u/n5
*768 Accumulate\[86\]
*769 pe_u/pe10/add_85/U1_6
*770 pe_u/pe10/Accumulate_reg\[6\]
*771 PEready\[14\]
*772 ctl_u/U213
*773 Accumulate\[26\]
*774 pe_u/pe3/add_85/U1_2
*775 pe_u/pe3/Accumulate_reg\[2\]
*776 Accumulate\[18\]
*777 pe_u/pe2/add_85/U1_2
*778 pe_u/pe2/Accumulate_reg\[2\]
*779 PEready\[5\]
*780 comp_u/U129
*781 ctl_u/U204
*782 comp_u/n150
*783 comp_u/U45
*784 comp_u/n61
*785 comp_u/n113
*786 comp_u/n59
*787 comp_u/n152
*788 comp_u/U101
*789 comp_u/U67
*790 comp_u/U16
*791 PEready\[1\]
*792 comp_u/U102
*793 ctl_u/U118
*794 comp_u/n57
*795 Accumulate\[27\]
*796 pe_u/pe3/add_85/U1_3
*797 pe_u/pe3/Accumulate_reg\[3\]
*798 Accumulate\[19\]
*799 pe_u/pe2/add_85/U1_3
*800 pe_u/pe2/Accumulate_reg\[3\]
*801 comp_u/n197
*802 comp_u/n54
*803 comp_u/n53
*804 comp_u/n55
*805 comp_u/n175
*806 PEready\[10\]
*807 ctl_u/U209
*808 Accumulate\[118\]
*809 pe_u/pe14/add_85/U1_6
*810 pe_u/pe14/Accumulate_reg\[6\]
*811 Accumulate\[126\]
*812 pe_u/pe15/add_114/U1_6
*813 pe_u/pe15/Accumulate_reg\[6\]
*814 comp_u/n237
*815 comp_u/n34
*816 comp_u/n46
*817 comp_u/U94
*818 Accumulate\[104\]
*819 pe_u/pe13/add_85/U3
*820 pe_u/pe13/add_85/U1
*821 pe_u/pe13/Accumulate_reg\[0\]
*822 comp_u/n174
*823 comp_u/n9
*824 Accumulate\[7\]
*825 pe_u/pe0/add_85/U1_7
*826 pe_u/pe0/Accumulate_reg\[7\]
*827 Accumulate\[55\]
*828 pe_u/pe6/add_85/U1_7
*829 pe_u/pe6/Accumulate_reg\[7\]
*830 Accumulate\[15\]
*831 pe_u/pe1/add_85/U1_7
*832 pe_u/pe1/Accumulate_reg\[7\]
*833 Accumulate\[87\]
*834 pe_u/pe10/add_85/U1_7
*835 pe_u/pe10/Accumulate_reg\[7\]
*836 comp_u/n151
*837 PEready\[2\]
*838 ctl_u/U201
*839 PEready\[3\]
*840 comp_u/U100
*841 ctl_u/U202
*842 comp_u/n153
*843 comp_u/n23
*844 comp_u/n245
*845 comp_u/n22
*846 PEready\[12\]
*847 ctl_u/U211
*848 comp_u/n42
*849 comp_u/n45
*850 comp_u/n39
*851 comp_u/n40
*852 comp_u/U90
*853 comp_u/n41
*854 Accumulate\[49\]
*855 pe_u/pe6/add_85/U1_1
*856 pe_u/pe6/Accumulate_reg\[1\]
*857 Accumulate\[9\]
*858 pe_u/pe1/add_85/U1_1
*859 pe_u/pe1/Accumulate_reg\[1\]
*860 Accumulate\[1\]
*861 pe_u/pe0/add_85/U1_1
*862 pe_u/pe0/Accumulate_reg\[1\]
*863 Accumulate\[85\]
*864 pe_u/pe10/add_85/U1_5
*865 pe_u/pe10/Accumulate_reg\[5\]
*866 comp_u/n7
*867 comp_u/n32
*868 comp_u/n71
*869 comp_u/U69
*870 Accumulate\[80\]
*871 pe_u/pe10/add_85/U3
*872 pe_u/pe10/add_85/U2
*873 pe_u/pe10/Accumulate_reg\[0\]
*874 comp_u/n60
*875 comp_u/U31
*876 comp_u/n8
*877 comp_u/n24
*878 comp_u/n149
*879 comp_u/U5
*880 Accumulate\[120\]
*881 pe_u/pe15/add_114/U3
*882 pe_u/pe15/add_114/U1
*883 pe_u/pe15/Accumulate_reg\[0\]
*884 Accumulate\[28\]
*885 pe_u/pe3/add_85/U1_4
*886 pe_u/pe3/Accumulate_reg\[4\]
*887 Accumulate\[20\]
*888 pe_u/pe2/add_85/U1_4
*889 pe_u/pe2/Accumulate_reg\[4\]
*890 Accumulate\[113\]
*891 pe_u/pe14/add_85/U1_1
*892 pe_u/pe14/Accumulate_reg\[1\]
*893 Accumulate\[121\]
*894 pe_u/pe15/add_114/U1_1
*895 pe_u/pe15/Accumulate_reg\[1\]
*896 comp_u/n3
*897 comp_u/U9
*898 comp_u/n21
*899 comp_u/U53
*900 Accumulate\[81\]
*901 pe_u/pe10/add_85/U1_1
*902 pe_u/pe10/Accumulate_reg\[1\]
*903 comp_u/n20
*904 Accumulate\[89\]
*905 pe_u/pe11/add_85/U1_1
*906 pe_u/pe11/Accumulate_reg\[1\]
*907 Accumulate\[65\]
*908 pe_u/pe8/add_85/U1_1
*909 pe_u/pe8/Accumulate_reg\[1\]
*910 comp_u/n229
*911 comp_u/n19
*912 comp_u/n210
*913 comp_u/n17
*914 comp_u/n18
*915 Accumulate\[83\]
*916 pe_u/pe10/add_85/U1_3
*917 pe_u/pe10/Accumulate_reg\[3\]
*918 PEready\[11\]
*919 ctl_u/U210
*920 comp_u/n16
*921 comp_u/n29
*922 comp_u/n12
*923 comp_u/n13
*924 comp_u/U41
*925 comp_u/n14
*926 Accumulate\[8\]
*927 pe_u/pe1/add_85/U3
*928 pe_u/pe1/add_85/U2
*929 pe_u/pe1/Accumulate_reg\[0\]
*930 Accumulate\[0\]
*931 pe_u/pe0/add_85/U3
*932 pe_u/pe0/add_85/U2
*933 pe_u/pe0/Accumulate_reg\[0\]
*934 Accumulate\[57\]
*935 pe_u/pe7/add_85/U1_1
*936 pe_u/pe7/Accumulate_reg\[1\]
*937 Accumulate\[97\]
*938 pe_u/pe12/add_85/U1_1
*939 pe_u/pe12/Accumulate_reg\[1\]
*940 Accumulate\[70\]
*941 pe_u/pe8/add_85/U1_6
*942 pe_u/pe8/Accumulate_reg\[6\]
*943 Accumulate\[94\]
*944 pe_u/pe11/add_85/U1_6
*945 pe_u/pe11/Accumulate_reg\[6\]
*946 Accumulate\[71\]
*947 pe_u/pe8/add_85/U1_7
*948 pe_u/pe8/Accumulate_reg\[7\]
*949 Accumulate\[95\]
*950 pe_u/pe11/add_85/U1_7
*951 pe_u/pe11/Accumulate_reg\[7\]
*952 Accumulate\[69\]
*953 pe_u/pe8/add_85/U1_5
*954 pe_u/pe8/Accumulate_reg\[5\]
*955 Accumulate\[93\]
*956 pe_u/pe11/add_85/U1_5
*957 pe_u/pe11/Accumulate_reg\[5\]
*958 comp_u/n62
*959 comp_u/n148
*960 comp_u/U23
*961 Accumulate\[112\]
*962 pe_u/pe14/add_85/U3
*963 pe_u/pe14/add_85/U2
*964 pe_u/pe14/Accumulate_reg\[0\]
*965 Accumulate\[96\]
*966 pe_u/pe12/add_85/U3
*967 pe_u/pe12/add_85/U2
*968 pe_u/pe12/Accumulate_reg\[0\]
*969 PEready\[7\]
*970 ctl_u/U206
*971 Accumulate\[48\]
*972 pe_u/pe6/add_85/U3
*973 pe_u/pe6/add_85/U1
*974 pe_u/pe6/Accumulate_reg\[0\]
*975 comp_u/n121
*976 PEready\[4\]
*977 ctl_u/U203
*978 ctl_u/count_reg\[1\]
*979 ctl_u/count_reg\[6\]
*980 ctl_u/count_reg\[11\]
*981 ctl_u/count_reg\[0\]
*982 ctl_u/count_reg\[12\]
*983 ctl_u/count_reg\[3\]
*984 ctl_u/count_reg\[4\]
*985 ctl_u/count_reg\[9\]
*986 ctl_u/count_reg\[2\]
*987 ctl_u/count_reg\[7\]
*988 ctl_u/count_reg\[10\]
*989 ctl_u/count_reg\[5\]
*990 pe_u/pe0/Rpipe_reg\[0\]
*991 pe_u/pe0/Rpipe_reg\[1\]
*992 pe_u/pe0/Rpipe_reg\[2\]
*993 pe_u/pe0/Rpipe_reg\[3\]
*994 pe_u/pe0/Rpipe_reg\[4\]
*995 pe_u/pe0/Rpipe_reg\[5\]
*996 pe_u/pe0/Rpipe_reg\[6\]
*997 pe_u/pe0/Rpipe_reg\[7\]
*998 pe_u/pe1/Rpipe_reg\[0\]
*999 pe_u/pe1/Rpipe_reg\[1\]
*1000 pe_u/pe1/Rpipe_reg\[2\]
*1001 pe_u/pe1/Rpipe_reg\[3\]
*1002 pe_u/pe1/Rpipe_reg\[4\]
*1003 pe_u/pe1/Rpipe_reg\[5\]
*1004 pe_u/pe1/Rpipe_reg\[6\]
*1005 pe_u/pe1/Rpipe_reg\[7\]
*1006 pe_u/pe2/Rpipe_reg\[0\]
*1007 pe_u/pe2/Rpipe_reg\[1\]
*1008 pe_u/pe2/Rpipe_reg\[2\]
*1009 pe_u/pe2/Rpipe_reg\[3\]
*1010 pe_u/pe2/Rpipe_reg\[4\]
*1011 pe_u/pe2/Rpipe_reg\[5\]
*1012 pe_u/pe2/Rpipe_reg\[6\]
*1013 pe_u/pe2/Rpipe_reg\[7\]
*1014 pe_u/pe3/Rpipe_reg\[0\]
*1015 pe_u/pe3/Rpipe_reg\[2\]
*1016 pe_u/pe3/Rpipe_reg\[3\]
*1017 pe_u/pe3/Rpipe_reg\[4\]
*1018 pe_u/pe3/Rpipe_reg\[5\]
*1019 pe_u/pe3/Rpipe_reg\[6\]
*1020 pe_u/pe3/Rpipe_reg\[7\]
*1021 pe_u/pe3/Rpipe_reg\[1\]
*1022 pe_u/pe4/Rpipe_reg\[0\]
*1023 pe_u/pe4/Rpipe_reg\[1\]
*1024 pe_u/pe4/Rpipe_reg\[2\]
*1025 pe_u/pe4/Rpipe_reg\[3\]
*1026 pe_u/pe4/Rpipe_reg\[4\]
*1027 pe_u/pe4/Rpipe_reg\[5\]
*1028 pe_u/pe4/Rpipe_reg\[6\]
*1029 pe_u/pe4/Rpipe_reg\[7\]
*1030 pe_u/pe5/Rpipe_reg\[0\]
*1031 pe_u/pe5/Rpipe_reg\[1\]
*1032 pe_u/pe5/Rpipe_reg\[2\]
*1033 pe_u/pe5/Rpipe_reg\[3\]
*1034 pe_u/pe5/Rpipe_reg\[4\]
*1035 pe_u/pe5/Rpipe_reg\[5\]
*1036 pe_u/pe5/Rpipe_reg\[6\]
*1037 pe_u/pe5/Rpipe_reg\[7\]
*1038 pe_u/pe6/Rpipe_reg\[0\]
*1039 pe_u/pe6/Rpipe_reg\[1\]
*1040 pe_u/pe6/Rpipe_reg\[2\]
*1041 pe_u/pe6/Rpipe_reg\[3\]
*1042 pe_u/pe6/Rpipe_reg\[4\]
*1043 pe_u/pe6/Rpipe_reg\[5\]
*1044 pe_u/pe6/Rpipe_reg\[6\]
*1045 pe_u/pe6/Rpipe_reg\[7\]
*1046 pe_u/pe7/Rpipe_reg\[0\]
*1047 pe_u/pe7/Rpipe_reg\[1\]
*1048 pe_u/pe7/Rpipe_reg\[2\]
*1049 pe_u/pe7/Rpipe_reg\[3\]
*1050 pe_u/pe7/Rpipe_reg\[4\]
*1051 pe_u/pe7/Rpipe_reg\[5\]
*1052 pe_u/pe7/Rpipe_reg\[6\]
*1053 pe_u/pe7/Rpipe_reg\[7\]
*1054 pe_u/pe8/Rpipe_reg\[0\]
*1055 pe_u/pe8/Rpipe_reg\[1\]
*1056 pe_u/pe8/Rpipe_reg\[2\]
*1057 pe_u/pe8/Rpipe_reg\[3\]
*1058 pe_u/pe8/Rpipe_reg\[4\]
*1059 pe_u/pe8/Rpipe_reg\[5\]
*1060 pe_u/pe8/Rpipe_reg\[6\]
*1061 pe_u/pe8/Rpipe_reg\[7\]
*1062 pe_u/pe9/Rpipe_reg\[0\]
*1063 pe_u/pe9/Rpipe_reg\[1\]
*1064 pe_u/pe9/Rpipe_reg\[2\]
*1065 pe_u/pe9/Rpipe_reg\[3\]
*1066 pe_u/pe9/Rpipe_reg\[4\]
*1067 pe_u/pe9/Rpipe_reg\[5\]
*1068 pe_u/pe9/Rpipe_reg\[6\]
*1069 pe_u/pe9/Rpipe_reg\[7\]
*1070 pe_u/pe10/Rpipe_reg\[0\]
*1071 pe_u/pe10/Rpipe_reg\[1\]
*1072 pe_u/pe10/Rpipe_reg\[2\]
*1073 pe_u/pe10/Rpipe_reg\[3\]
*1074 pe_u/pe10/Rpipe_reg\[4\]
*1075 pe_u/pe10/Rpipe_reg\[5\]
*1076 pe_u/pe10/Rpipe_reg\[6\]
*1077 pe_u/pe10/Rpipe_reg\[7\]
*1078 pe_u/pe11/Rpipe_reg\[0\]
*1079 pe_u/pe11/Rpipe_reg\[1\]
*1080 pe_u/pe11/Rpipe_reg\[2\]
*1081 pe_u/pe11/Rpipe_reg\[3\]
*1082 pe_u/pe11/Rpipe_reg\[4\]
*1083 pe_u/pe11/Rpipe_reg\[5\]
*1084 pe_u/pe11/Rpipe_reg\[6\]
*1085 pe_u/pe11/Rpipe_reg\[7\]
*1086 pe_u/pe12/Rpipe_reg\[0\]
*1087 pe_u/pe12/Rpipe_reg\[1\]
*1088 pe_u/pe12/Rpipe_reg\[2\]
*1089 pe_u/pe12/Rpipe_reg\[3\]
*1090 pe_u/pe12/Rpipe_reg\[4\]
*1091 pe_u/pe12/Rpipe_reg\[5\]
*1092 pe_u/pe12/Rpipe_reg\[6\]
*1093 pe_u/pe12/Rpipe_reg\[7\]
*1094 pe_u/pe13/Rpipe_reg\[0\]
*1095 pe_u/pe13/Rpipe_reg\[1\]
*1096 pe_u/pe13/Rpipe_reg\[2\]
*1097 pe_u/pe13/Rpipe_reg\[3\]
*1098 pe_u/pe13/Rpipe_reg\[4\]
*1099 pe_u/pe13/Rpipe_reg\[5\]
*1100 pe_u/pe13/Rpipe_reg\[7\]
*1101 pe_u/pe13/Rpipe_reg\[6\]
*1102 pe_u/pe14/Rpipe_reg\[0\]
*1103 pe_u/pe14/Rpipe_reg\[1\]
*1104 pe_u/pe14/Rpipe_reg\[2\]
*1105 pe_u/pe14/Rpipe_reg\[3\]
*1106 pe_u/pe14/Rpipe_reg\[6\]
*1107 pe_u/pe14/Rpipe_reg\[7\]
*1108 pe_u/pe14/Rpipe_reg\[5\]
*1109 pe_u/pe14/Rpipe_reg\[4\]
*1110 pe_u/pe15/N11
*1111 pe_u/pe15/sub_108/U10
*1112 pe_u/pe15/sub_112/U2_1
*1113 pe_u/pe15/U20
*1114 pe_u/pe15/sub_108/n7
*1115 pe_u/pe15/sub_108/U2_1
*1116 pe_u/pe15/N13
*1117 pe_u/pe15/sub_108/U9
*1118 pe_u/pe15/sub_112/U2_3
*1119 pe_u/pe15/U72
*1120 pe_u/pe15/sub_108/n5
*1121 pe_u/pe15/sub_108/U2_3
*1122 pe_u/pe15/N16
*1123 pe_u/pe15/sub_108/U8
*1124 pe_u/pe15/sub_112/U2_6
*1125 pe_u/pe15/U21
*1126 pe_u/pe15/sub_108/n2
*1127 pe_u/pe15/sub_108/U2_6
*1128 pe_u/pe15/sub_108/n1
*1129 pe_u/pe15/sub_108/U7
*1130 pe_u/pe15/sub_108/U2_7
*1131 pe_u/pe15/sub_108/carry\[1\]
*1132 pe_u/pe15/sub_108/U6
*1133 pe_u/Rpipe14\[0\]
*1134 pe_u/pe15/sub_108/U2
*1135 pe_u/pe15/sub_112/U10
*1136 pe_u/pe15/U19
*1137 pe_u/pe15/sub_108/n8
*1138 pe_u/pe15/sub_108/U5
*1139 pe_u/pe15/sub_108/n4
*1140 pe_u/pe15/sub_108/U4
*1141 pe_u/pe15/sub_108/U2_4
*1142 pe_u/pe15/N15
*1143 pe_u/pe15/sub_108/U3
*1144 pe_u/pe15/U98
*1145 pe_u/pe15/U88
*1146 pe_u/pe15/sub_112/U2_5
*1147 pe_u/pe15/sub_108/n3
*1148 pe_u/pe15/sub_108/U2_5
*1149 pe_u/pe15/N18
*1150 pe_u/pe15/U34
*1151 pe_u/pe15/sub_108/n6
*1152 pe_u/pe15/sub_108/U1
*1153 pe_u/pe15/sub_108/U2_2
*1154 pe_u/Rpipe14\[1\]
*1155 pe_u/pe15/sub_112/U9
*1156 pe_u/pe15/U62
*1157 pe_u/pe15/sub_108/carry\[2\]
*1158 pe_u/pe15/N19
*1159 pe_u/pe15/U27
*1160 pe_u/Rpipe14\[2\]
*1161 pe_u/pe15/sub_112/U8
*1162 pe_u/pe15/U61
*1163 pe_u/pe15/U59
*1164 pe_u/pe15/sub_108/carry\[3\]
*1165 pe_u/pe15/N20
*1166 pe_u/pe15/U103
*1167 pe_u/Rpipe14\[3\]
*1168 pe_u/pe15/sub_112/U7
*1169 pe_u/pe15/U56
*1170 pe_u/pe15/sub_108/carry\[4\]
*1171 pe_u/pe15/N21
*1172 pe_u/pe15/U50
*1173 pe_u/Rpipe14\[4\]
*1174 pe_u/pe15/sub_112/U6
*1175 pe_u/pe15/U57
*1176 pe_u/pe15/U10
*1177 pe_u/pe15/sub_108/carry\[5\]
*1178 pe_u/pe15/N22
*1179 pe_u/pe15/U54
*1180 pe_u/Rpipe14\[5\]
*1181 pe_u/pe15/sub_112/U5
*1182 pe_u/pe15/U89
*1183 pe_u/pe15/U9
*1184 pe_u/pe15/sub_108/carry\[6\]
*1185 pe_u/pe15/N23
*1186 pe_u/pe15/U51
*1187 pe_u/Rpipe14\[6\]
*1188 pe_u/pe15/sub_112/U4
*1189 pe_u/pe15/U106
*1190 pe_u/pe15/U90
*1191 pe_u/pe15/U84
*1192 pe_u/pe15/U77
*1193 pe_u/pe15/sub_108/carry\[7\]
*1194 pe_u/pe15/N24
*1195 pe_u/pe15/U52
*1196 pe_u/Rpipe14\[7\]
*1197 pe_u/pe15/sub_112/U3
*1198 pe_u/pe15/U82
*1199 pe_u/pe15/U80
*1200 pe_u/pe15/U79
*1201 pe_u/pe15/U76
*1202 pe_u/pe15/U12
*1203 pe_u/pe15/N25
*1204 pe_u/pe15/U33
*1205 pe_u/pe15/sub_112/n8
*1206 pe_u/pe15/sub_112/U2
*1207 pe_u/pe15/sub_112/U1
*1208 pe_u/pe15/sub_112/n7
*1209 pe_u/pe15/sub_112/n6
*1210 pe_u/pe15/sub_112/U2_2
*1211 pe_u/pe15/sub_112/n5
*1212 pe_u/pe15/sub_112/n4
*1213 pe_u/pe15/sub_112/U2_4
*1214 pe_u/pe15/sub_112/n3
*1215 pe_u/pe15/sub_112/n2
*1216 pe_u/pe15/sub_112/n1
*1217 pe_u/pe15/sub_112/U2_7
*1218 pe_u/pe15/N26
*1219 pe_u/pe15/sub_112/carry\[1\]
*1220 pe_u/pe15/sub_112/carry\[2\]
*1221 pe_u/pe15/N27
*1222 pe_u/pe15/sub_112/carry\[3\]
*1223 pe_u/pe15/N28
*1224 pe_u/pe15/sub_112/carry\[4\]
*1225 pe_u/pe15/N29
*1226 pe_u/pe15/sub_112/carry\[5\]
*1227 pe_u/pe15/N30
*1228 pe_u/pe15/sub_112/carry\[6\]
*1229 pe_u/pe15/N31
*1230 pe_u/pe15/sub_112/carry\[7\]
*1231 pe_u/pe15/N32
*1232 pe_u/pe15/N33
*1233 pe_u/pe15/N34
*1234 pe_u/pe15/U30
*1235 pe_u/pe15/difference\[0\]
*1236 pe_u/pe15/add_114/carry\[1\]
*1237 pe_u/pe15/add_114/carry\[7\]
*1238 pe_u/pe15/Carry
*1239 pe_u/pe15/U2
*1240 pe_u/pe15/U3
*1241 pe_u/pe15/difference\[7\]
*1242 pe_u/pe15/U41
*1243 pe_u/pe15/N41
*1244 pe_u/pe15/add_114/carry\[6\]
*1245 pe_u/pe15/difference\[6\]
*1246 pe_u/pe15/U43
*1247 pe_u/pe15/N40
*1248 pe_u/pe15/add_114/carry\[5\]
*1249 pe_u/pe15/difference\[5\]
*1250 pe_u/pe15/U44
*1251 pe_u/pe15/N39
*1252 pe_u/pe15/add_114/carry\[4\]
*1253 pe_u/pe15/difference\[4\]
*1254 pe_u/pe15/U93
*1255 pe_u/pe15/N38
*1256 pe_u/pe15/add_114/carry\[3\]
*1257 pe_u/pe15/difference\[3\]
*1258 pe_u/pe15/U49
*1259 pe_u/pe15/N37
*1260 pe_u/pe15/add_114/carry\[2\]
*1261 pe_u/pe15/difference\[2\]
*1262 pe_u/pe15/U107
*1263 pe_u/pe15/N36
*1264 pe_u/pe15/difference\[1\]
*1265 pe_u/pe15/U48
*1266 pe_u/pe15/N35
*1267 pe_u/pe15/n24
*1268 pe_u/pe15/U101
*1269 pe_u/pe15/net9267
*1270 pe_u/pe15/net7867
*1271 pe_u/pe15/U86
*1272 pe_u/pe15/net11827
*1273 pe_u/pe15/AccumulateIn\[4\]
*1274 pe_u/pe15/U102
*1275 pe_u/pe15/n23
*1276 pe_u/pe15/AccumulateIn\[2\]
*1277 pe_u/pe15/N14
*1278 pe_u/pe15/U95
*1279 pe_u/pe15/U91
*1280 pe_u/pe15/net13784
*1281 pe_u/pe15/net7876
*1282 pe_u/pe15/U28
*1283 pe_u/pe15/net8749
*1284 pe_u/pe15/U83
*1285 pe_u/pe15/net13277
*1286 pe_u/pe15/U14
*1287 pe_u/pe15/net8748
*1288 pe_u/pe15/n21
*1289 pe_u/pe15/net7869
*1290 pe_u/pe15/U11
*1291 pe_u/pe15/net13924
*1292 pe_u/pe15/net9301
*1293 pe_u/pe15/net7865
*1294 pe_u/pe15/U81
*1295 pe_u/pe15/net7864
*1296 pe_u/pe15/net8950
*1297 pe_u/pe15/net7862
*1298 pe_u/pe15/U78
*1299 pe_u/pe15/net12905
*1300 pe_u/pe15/N17
*1301 pe_u/pe15/U4
*1302 pe_u/pe15/net7863
*1303 pe_u/pe15/net8951
*1304 pe_u/pe15/net8934
*1305 pe_u/pe15/U71
*1306 pe_u/pe15/net13224
*1307 pe_u/pe15/U26
*1308 S1S2mux\[15\]
*1309 ctl_u/U82
*1310 ctl_u/U81
*1311 pe_u/pe15/U17
*1312 pe_u/pe15/U65
*1313 pe_u/pe15/U67
*1314 pe_u/pe15/N12
*1315 pe_u/pe15/U60
*1316 pe_u/n10
*1317 pe_u/pe7/U47
*1318 pe_u/U10
*1319 pe_u/pe1/U23
*1320 pe_u/pe15/N10
*1321 pe_u/pe15/U63
*1322 pe_u/pe15/net7879
*1323 pe_u/pe15/net7878